
     RDKit          3D

 14 15  0  0  0  0  0  0  0  0999 V2000
    9.2190   -0.3740   22.5140 C   0  0  0  0  0  0  0  0  0  0  0  0
   10.6840   -0.0150   22.6070 C   0  0  0  0  0  0  0  0  0  0  0  0
   11.6550   -0.9330   22.2230 C   0  0  0  0  0  0  0  0  0  0  0  0
   12.9910   -0.5810   22.2890 C   0  0  0  0  0  0  0  0  0  0  0  0
   14.1920   -1.7270   21.7660 Cl  0  0  0  0  0  0  0  0  0  0  0  0
   13.3970    0.6660   22.7190 C   0  0  0  0  0  0  0  0  0  0  0  0
   12.4220    1.5760   23.0940 C   0  0  0  0  0  0  0  0  0  0  0  0
   12.7580    2.8360   23.5460 O   0  0  0  0  0  0  0  0  0  0  0  0
   13.6420    3.6170   22.7170 C   0  0  0  0  0  0  0  0  0  0  0  0
   12.7740    4.3770   21.7080 C   0  0  0  0  0  0  0  0  0  0  0  0
   13.3830    5.6270   22.3300 C   0  0  0  0  0  0  0  0  0  0  0  0
   13.3650    6.8310   22.0800 O   0  0  0  0  0  0  0  0  0  0  0  0
   13.9760    4.9240   23.3130 N   0  0  0  0  0  0  0  0  0  0  0  0
   11.0750    1.2440   23.0520 C   0  0  0  0  0  0  0  0  0  0  0  0
  1  2  1  0
  2  3  1  0
  3  4  1  0
  4  5  1  0
  4  6  1  0
  6  7  1  0
  7  8  1  0
  8  9  1  0
  9 10  1  0
 10 11  1  0
 11 12  1  0
 11 13  1  0
  7 14  1  0
 14  2  1  0
 13  9  1  0
M  END
